examples/data/enwl/lv-network-models/network_11/Feeder_4/Loads.dss
New Load.LOAD1 Phases=1 Bus1=157.1 kV=0.23 kW=1 PF=0.95
New Load.LOAD2 Phases=1 Bus1=322.2 kV=0.23 kW=1 PF=0.95
New Load.LOAD3 Phases=1 Bus1=323.3 kV=0.23 kW=1 PF=0.95
New Load.LOAD4 Phases=1 Bus1=337.1 kV=0.23 kW=1 PF=0.95
New Load.LOAD5 Phases=1 Bus1=338.2 kV=0.23 kW=1 PF=0.95
New Load.LOAD6 Phases=1 Bus1=339.3 kV=0.23 kW=1 PF=0.95
New Load.LOAD7 Phases=1 Bus1=340.1 kV=0.23 kW=1 PF=0.95
New Load.LOAD8 Phases=1 Bus1=341.2 kV=0.23 kW=1 PF=0.95
New Load.LOAD9 Phases=1 Bus1=342.3 kV=0.23 kW=1 PF=0.95
New Load.LOAD10 Phases=1 Bus1=343.1 kV=0.23 kW=1 PF=0.95
New Load.LOAD11 Phases=1 Bus1=344.2 kV=0.23 kW=1 PF=0.95
New Load.LOAD12 Phases=1 Bus1=345.3 kV=0.23 kW=1 PF=0.95
New Load.LOAD13 Phases=1 Bus1=346.1 kV=0.23 kW=1 PF=0.95
New Load.LOAD14 Phases=1 Bus1=347.2 kV=0.23 kW=1 PF=0.95
New Load.LOAD15 Phases=1 Bus1=348.3 kV=0.23 kW=1 PF=0.95
New Load.LOAD16 Phases=1 Bus1=349.1 kV=0.23 kW=1 PF=0.95
New Load.LOAD17 Phases=1 Bus1=350.2 kV=0.23 kW=1 PF=0.95
New Load.LOAD18 Phases=1 Bus1=351.3 kV=0.23 kW=1 PF=0.95
New Load.LOAD19 Phases=1 Bus1=352.1 kV=0.23 kW=1 PF=0.95
New Load.LOAD20 Phases=1 Bus1=353.2 kV=0.23 kW=1 PF=0.95
New Load.LOAD21 Phases=1 Bus1=354.3 kV=0.23 kW=1 PF=0.95
New Load.LOAD22 Phases=1 Bus1=355.1 kV=0.23 kW=1 PF=0.95
New Load.LOAD23 Phases=1 Bus1=356.2 kV=0.23 kW=1 PF=0.95
New Load.LOAD24 Phases=1 Bus1=357.3 kV=0.23 kW=1 PF=0.95
New Load.LOAD25 Phases=1 Bus1=358.1 kV=0.23 kW=1 PF=0.95
New Load.LOAD26 Phases=1 Bus1=359.2 kV=0.23 kW=1 PF=0.95
New Load.LOAD27 Phases=1 Bus1=360.3 kV=0.23 kW=1 PF=0.95
New Load.LOAD28 Phases=1 Bus1=361.1 kV=0.23 kW=1 PF=0.95
New Load.LOAD29 Phases=1 Bus1=362.2 kV=0.23 kW=1 PF=0.95
New Load.LOAD30 Phases=1 Bus1=363.3 kV=0.23 kW=1 PF=0.95
New Load.LOAD31 Phases=1 Bus1=364.1 kV=0.23 kW=1 PF=0.95
New Load.LOAD32 Phases=1 Bus1=404.2 kV=0.23 kW=1 PF=0.95
New Load.LOAD33 Phases=1 Bus1=491.3 kV=0.23 kW=1 PF=0.95
New Load.LOAD34 Phases=1 Bus1=492.1 kV=0.23 kW=1 PF=0.95
New Load.LOAD35 Phases=1 Bus1=493.1 kV=0.23 kW=1 PF=0.95
New Load.LOAD36 Phases=1 Bus1=498.2 kV=0.23 kW=1 PF=0.95
New Load.LOAD37 Phases=1 Bus1=516.3 kV=0.23 kW=1 PF=0.95
New Load.LOAD38 Phases=1 Bus1=517.3 kV=0.23 kW=1 PF=0.95
New Load.LOAD39 Phases=1 Bus1=518.3 kV=0.23 kW=1 PF=0.95
New Load.LOAD40 Phases=1 Bus1=542.3 kV=0.23 kW=1 PF=0.95
New Load.LOAD41 Phases=1 Bus1=575.3 kV=0.23 kW=1 PF=0.95
New Load.LOAD42 Phases=1 Bus1=576.1 kV=0.23 kW=1 PF=0.95
New Load.LOAD43 Phases=1 Bus1=585.2 kV=0.23 kW=1 PF=0.95
New Load.LOAD44 Phases=1 Bus1=594.3 kV=0.23 kW=1 PF=0.95
New Load.LOAD45 Phases=1 Bus1=595.1 kV=0.23 kW=1 PF=0.95
New Load.LOAD46 Phases=1 Bus1=596.2 kV=0.23 kW=1 PF=0.95
New Load.LOAD47 Phases=1 Bus1=612.3 kV=0.23 kW=1 PF=0.95
New Load.LOAD48 Phases=1 Bus1=613.1 kV=0.23 kW=1 PF=0.95
New Load.LOAD49 Phases=1 Bus1=614.2 kV=0.23 kW=1 PF=0.95
New Load.LOAD50 Phases=1 Bus1=615.3 kV=0.23 kW=1 PF=0.95
New Load.LOAD51 Phases=1 Bus1=616.1 kV=0.23 kW=1 PF=0.95
New Load.LOAD52 Phases=1 Bus1=617.2 kV=0.23 kW=1 PF=0.95
New Load.LOAD53 Phases=1 Bus1=618.3 kV=0.23 kW=1 PF=0.95
New Load.LOAD54 Phases=1 Bus1=619.1 kV=0.23 kW=1 PF=0.95
New Load.LOAD55 Phases=1 Bus1=623.1 kV=0.23 kW=1 PF=0.95
New Load.LOAD56 Phases=1 Bus1=697.2 kV=0.23 kW=1 PF=0.95
New Load.LOAD57 Phases=1 Bus1=758.2 kV=0.23 kW=1 PF=0.95
New Load.LOAD58 Phases=1 Bus1=830.3 kV=0.23 kW=1 PF=0.95
New Load.LOAD59 Phases=1 Bus1=855.1 kV=0.23 kW=1 PF=0.95
New Load.LOAD60 Phases=1 Bus1=859.2 kV=0.23 kW=1 PF=0.95
New Load.LOAD61 Phases=1 Bus1=923.3 kV=0.23 kW=1 PF=0.95